
Version,
  9.3;                                    !- Version Identifier

Timestep,
  1;                                      !- Number of Timesteps per Hour

LifeCycleCost:Parameters,
  Life Cycle Cost Parameters,             !- Name
  EndOfYear,                              !- Discounting Convention
  ConstantDollar,                         !- Inflation Approach
  0.03,                                   !- Real Discount Rate
  ,                                       !- Nominal Discount Rate
  ,                                       !- Inflation
  ,                                       !- Base Date Month
  2011,                                   !- Base Date Year
  ,                                       !- Service Date Month
  2011,                                   !- Service Date Year
  25,                                     !- Length of Study Period in Years
  ,                                       !- Tax rate
  None;                                   !- Depreciation Method

LifeCycleCost:UsePriceEscalation,
  U.S. Avg  Commercial-Electricity,       !- Name
  Electricity,                            !- Resource
  2011,                                   !- Escalation Start Year
  January,                                !- Escalation Start Month
  0.9838,                                 !- Year Escalation 1
  0.9730,                                 !- Year Escalation 2
  0.9632,                                 !- Year Escalation 3
  0.9611,                                 !- Year Escalation 4
  0.9571,                                 !- Year Escalation 5
  0.9553,                                 !- Year Escalation 6
  0.9539,                                 !- Year Escalation 7
  0.9521,                                 !- Year Escalation 8
  0.9546,                                 !- Year Escalation 9
  0.9550,                                 !- Year Escalation 10
  0.9553,                                 !- Year Escalation 11
  0.9564,                                 !- Year Escalation 12
  0.9575,                                 !- Year Escalation 13
  0.9596,                                 !- Year Escalation 14
  0.9618,                                 !- Year Escalation 15
  0.9614,                                 !- Year Escalation 16
  0.9618,                                 !- Year Escalation 17
  0.9618,                                 !- Year Escalation 18
  0.9593,                                 !- Year Escalation 19
  0.9589,                                 !- Year Escalation 20
  0.9607,                                 !- Year Escalation 21
  0.9625,                                 !- Year Escalation 22
  0.9650,                                 !- Year Escalation 23
  0.9708,                                 !- Year Escalation 24
  0.9751,                                 !- Year Escalation 25
  0.9762,                                 !- Year Escalation 26
  0.9766,                                 !- Year Escalation 27
  0.9766,                                 !- Year Escalation 28
  0.9769,                                 !- Year Escalation 29
  0.9773;                                 !- Year Escalation 30

LifeCycleCost:UsePriceEscalation,
  U.S. Avg  Commercial-Distillate Oil,    !- Name
  FuelOilNo1,                             !- Resource
  2011,                                   !- Escalation Start Year
  January,                                !- Escalation Start Month
  0.9714,                                 !- Year Escalation 1
  0.9730,                                 !- Year Escalation 2
  0.9942,                                 !- Year Escalation 3
  1.0164,                                 !- Year Escalation 4
  1.0541,                                 !- Year Escalation 5
  1.0928,                                 !- Year Escalation 6
  1.1267,                                 !- Year Escalation 7
  1.1580,                                 !- Year Escalation 8
  1.1792,                                 !- Year Escalation 9
  1.1967,                                 !- Year Escalation 10
  1.2200,                                 !- Year Escalation 11
  1.2333,                                 !- Year Escalation 12
  1.2566,                                 !- Year Escalation 13
  1.2709,                                 !- Year Escalation 14
  1.2826,                                 !- Year Escalation 15
  1.2985,                                 !- Year Escalation 16
  1.3102,                                 !- Year Escalation 17
  1.3250,                                 !- Year Escalation 18
  1.3261,                                 !- Year Escalation 19
  1.3282,                                 !- Year Escalation 20
  1.3324,                                 !- Year Escalation 21
  1.3356,                                 !- Year Escalation 22
  1.3431,                                 !- Year Escalation 23
  1.3510,                                 !- Year Escalation 24
  1.3568,                                 !- Year Escalation 25
  1.3606,                                 !- Year Escalation 26
  1.3637,                                 !- Year Escalation 27
  1.3674,                                 !- Year Escalation 28
  1.3706,                                 !- Year Escalation 29
  1.3743;                                 !- Year Escalation 30

LifeCycleCost:UsePriceEscalation,
  U.S. Avg  Commercial-Residual Oil,      !- Name
  FuelOilNo2,                             !- Resource
  2011,                                   !- Escalation Start Year
  January,                                !- Escalation Start Month
  0.8469,                                 !- Year Escalation 1
  0.8257,                                 !- Year Escalation 2
  0.8681,                                 !- Year Escalation 3
  0.8988,                                 !- Year Escalation 4
  0.9289,                                 !- Year Escalation 5
  0.9604,                                 !- Year Escalation 6
  0.9897,                                 !- Year Escalation 7
  1.0075,                                 !- Year Escalation 8
  1.0314,                                 !- Year Escalation 9
  1.0554,                                 !- Year Escalation 10
  1.0861,                                 !- Year Escalation 11
  1.1278,                                 !- Year Escalation 12
  1.1497,                                 !- Year Escalation 13
  1.1620,                                 !- Year Escalation 14
  1.1743,                                 !- Year Escalation 15
  1.1852,                                 !- Year Escalation 16
  1.1948,                                 !- Year Escalation 17
  1.2037,                                 !- Year Escalation 18
  1.2071,                                 !- Year Escalation 19
  1.2119,                                 !- Year Escalation 20
  1.2139,                                 !- Year Escalation 21
  1.2194,                                 !- Year Escalation 22
  1.2276,                                 !- Year Escalation 23
  1.2365,                                 !- Year Escalation 24
  1.2420,                                 !- Year Escalation 25
  1.2461,                                 !- Year Escalation 26
  1.2509,                                 !- Year Escalation 27
  1.2550,                                 !- Year Escalation 28
  1.2591,                                 !- Year Escalation 29
  1.2638;                                 !- Year Escalation 30

LifeCycleCost:UsePriceEscalation,
  U.S. Avg  Commercial-Natural gas,       !- Name
  NaturalGas,                             !- Resource
  2011,                                   !- Escalation Start Year
  January,                                !- Escalation Start Month
  0.9823,                                 !- Year Escalation 1
  0.9557,                                 !- Year Escalation 2
  0.9279,                                 !- Year Escalation 3
  0.9257,                                 !- Year Escalation 4
  0.9346,                                 !- Year Escalation 5
  0.9412,                                 !- Year Escalation 6
  0.9512,                                 !- Year Escalation 7
  0.9645,                                 !- Year Escalation 8
  0.9856,                                 !- Year Escalation 9
  1.0067,                                 !- Year Escalation 10
  1.0222,                                 !- Year Escalation 11
  1.0410,                                 !- Year Escalation 12
  1.0610,                                 !- Year Escalation 13
  1.0787,                                 !- Year Escalation 14
  1.0942,                                 !- Year Escalation 15
  1.1098,                                 !- Year Escalation 16
  1.1220,                                 !- Year Escalation 17
  1.1308,                                 !- Year Escalation 18
  1.1386,                                 !- Year Escalation 19
  1.1486,                                 !- Year Escalation 20
  1.1619,                                 !- Year Escalation 21
  1.1763,                                 !- Year Escalation 22
  1.1918,                                 !- Year Escalation 23
  1.2118,                                 !- Year Escalation 24
  1.2284,                                 !- Year Escalation 25
  1.2439,                                 !- Year Escalation 26
  1.2605,                                 !- Year Escalation 27
  1.2772,                                 !- Year Escalation 28
  1.2938,                                 !- Year Escalation 29
  1.3115;                                 !- Year Escalation 30

LifeCycleCost:UsePriceEscalation,
  U.S. Avg  Commercial-Coal,              !- Name
  Coal,                                   !- Resource
  2011,                                   !- Escalation Start Year
  January,                                !- Escalation Start Month
  0.9970,                                 !- Year Escalation 1
  1.0089,                                 !- Year Escalation 2
  1.0089,                                 !- Year Escalation 3
  0.9941,                                 !- Year Escalation 4
  0.9941,                                 !- Year Escalation 5
  1.0000,                                 !- Year Escalation 6
  1.0030,                                 !- Year Escalation 7
  1.0059,                                 !- Year Escalation 8
  1.0089,                                 !- Year Escalation 9
  1.0119,                                 !- Year Escalation 10
  1.0148,                                 !- Year Escalation 11
  1.0178,                                 !- Year Escalation 12
  1.0208,                                 !- Year Escalation 13
  1.0267,                                 !- Year Escalation 14
  1.0297,                                 !- Year Escalation 15
  1.0356,                                 !- Year Escalation 16
  1.0415,                                 !- Year Escalation 17
  1.0534,                                 !- Year Escalation 18
  1.0564,                                 !- Year Escalation 19
  1.0593,                                 !- Year Escalation 20
  1.0653,                                 !- Year Escalation 21
  1.0712,                                 !- Year Escalation 22
  1.0742,                                 !- Year Escalation 23
  1.0801,                                 !- Year Escalation 24
  1.0831,                                 !- Year Escalation 25
  1.0831,                                 !- Year Escalation 26
  1.0861,                                 !- Year Escalation 27
  1.0890,                                 !- Year Escalation 28
  1.0920,                                 !- Year Escalation 29
  1.0950;                                 !- Year Escalation 30

Building,
  -RetailStandalone-ASHRAE 169-2006-5B created: 2018-06-14 11:28:15 -0600, !- Name
  0,                                      !- North Axis {deg}
  City,                                   !- Terrain
  0.04,                                   !- Loads Convergence Tolerance Value {W}
  0.2,                                    !- Temperature Convergence Tolerance Value {deltaC}
  FullInteriorAndExterior,                !- Solar Distribution
  25,                                     !- Maximum Number of Warmup Days
  6;                                      !- Minimum Number of Warmup Days

Zone,
  Back_Space ZN,                          !- Name
  0,                                      !- Direction of Relative North {deg}
  0,                                      !- X Origin {m}
  35.27,                                  !- Y Origin {m}
  0,                                      !- Z Origin {m}
  ,                                       !- Type
  ,                                       !- Multiplier
  ,                                       !- Ceiling Height {m}
  ,                                       !- Volume {m3}
  ,                                       !- Floor Area {m2}
  ,                                       !- Zone Inside Convection Algorithm
  ,                                       !- Zone Outside Convection Algorithm
  Yes;                                    !- Part of Total Floor Area

BuildingSurface:Detailed,
  Back_Space_Floor,                       !- Name
  Floor,                                  !- Surface Type
  Typical Insulated Carpeted 8in Slab Floor, !- Construction Name
  Back_Space ZN,                          !- Zone Name
  Ground,                                 !- Outside Boundary Condition
  ,                                       !- Outside Boundary Condition Object
  NoSun,                                  !- Sun Exposure
  NoWind,                                 !- Wind Exposure
  ,                                       !- View Factor to Ground
  ,                                       !- Number of Vertices
  54.27, 7, 0,                            !- X,Y,Z Vertex 1 {m}
  54.27, 0, 0,                            !- X,Y,Z Vertex 2 {m}
  0, 0, 0,                                !- X,Y,Z Vertex 3 {m}
  0, 7, 0;                                !- X,Y,Z Vertex 4 {m}

BuildingSurface:Detailed,
  Back_Space_Roof,                        !- Name
  Roof,                                   !- Surface Type
  Typical IEAD Roof R-31.25,              !- Construction Name
  Back_Space ZN,                          !- Zone Name
  Outdoors,                               !- Outside Boundary Condition
  ,                                       !- Outside Boundary Condition Object
  SunExposed,                             !- Sun Exposure
  WindExposed,                            !- Wind Exposure
  ,                                       !- View Factor to Ground
  ,                                       !- Number of Vertices
  54.27, 0, 6.096,                        !- X,Y,Z Vertex 1 {m}
  54.27, 7, 6.096,                        !- X,Y,Z Vertex 2 {m}
  0, 7, 6.096,                            !- X,Y,Z Vertex 3 {m}
  0, 0, 6.096;                            !- X,Y,Z Vertex 4 {m}

BuildingSurface:Detailed,
  Back_Space_Wall_East,                   !- Name
  Wall,                                   !- Surface Type
  Typical Insulated Exterior Mass Wall R-11.11, !- Construction Name
  Back_Space ZN,                          !- Zone Name
  Outdoors,                               !- Outside Boundary Condition
  ,                                       !- Outside Boundary Condition Object
  SunExposed,                             !- Sun Exposure
  WindExposed,                            !- Wind Exposure
  ,                                       !- View Factor to Ground
  ,                                       !- Number of Vertices
  54.27, 0, 6.096,                        !- X,Y,Z Vertex 1 {m}
  54.27, 0, 0,                            !- X,Y,Z Vertex 2 {m}
  54.27, 7, 0,                            !- X,Y,Z Vertex 3 {m}
  54.27, 7, 6.096;                        !- X,Y,Z Vertex 4 {m}

BuildingSurface:Detailed,
  Back_Space_Wall_North,                  !- Name
  Wall,                                   !- Surface Type
  Typical Insulated Exterior Mass Wall R-11.11, !- Construction Name
  Back_Space ZN,                          !- Zone Name
  Outdoors,                               !- Outside Boundary Condition
  ,                                       !- Outside Boundary Condition Object
  SunExposed,                             !- Sun Exposure
  WindExposed,                            !- Wind Exposure
  ,                                       !- View Factor to Ground
  ,                                       !- Number of Vertices
  54.27, 7, 6.096,                        !- X,Y,Z Vertex 1 {m}
  54.27, 7, 0,                            !- X,Y,Z Vertex 2 {m}
  0, 7, 0,                                !- X,Y,Z Vertex 3 {m}
  0, 7, 6.096;                            !- X,Y,Z Vertex 4 {m}

BuildingSurface:Detailed,
  Back_Space_Wall_South,                  !- Name
  Wall,                                   !- Surface Type
  Typical Interior Wall,                  !- Construction Name
  Back_Space ZN,                          !- Zone Name
  Surface,                                !- Outside Boundary Condition
  Core_Retail_Wall_North,                 !- Outside Boundary Condition Object
  NoSun,                                  !- Sun Exposure
  NoWind,                                 !- Wind Exposure
  ,                                       !- View Factor to Ground
  ,                                       !- Number of Vertices
  0, 0, 6.096,                            !- X,Y,Z Vertex 1 {m}
  0, 0, 0,                                !- X,Y,Z Vertex 2 {m}
  54.27, 0, 0,                            !- X,Y,Z Vertex 3 {m}
  54.27, 0, 6.096;                        !- X,Y,Z Vertex 4 {m}

BuildingSurface:Detailed,
  Back_Space_Wall_West,                   !- Name
  Wall,                                   !- Surface Type
  Typical Insulated Exterior Mass Wall R-11.11, !- Construction Name
  Back_Space ZN,                          !- Zone Name
  Outdoors,                               !- Outside Boundary Condition
  ,                                       !- Outside Boundary Condition Object
  SunExposed,                             !- Sun Exposure
  WindExposed,                            !- Wind Exposure
  ,                                       !- View Factor to Ground
  ,                                       !- Number of Vertices
  0, 7, 6.096,                            !- X,Y,Z Vertex 1 {m}
  0, 7, 0,                                !- X,Y,Z Vertex 2 {m}
  0, 0, 0,                                !- X,Y,Z Vertex 3 {m}
  0, 0, 6.096;                            !- X,Y,Z Vertex 4 {m}

InternalMass,
  Back_Space Mass,                        !- Name
  InteriorFurnishings,                    !- Construction Name
  Back_Space ZN,                          !- Zone or ZoneList Name
  759.78;                                 !- Surface Area {m2}

ZoneInfiltration:DesignFlowRate,
  Back_Space Infiltration,                !- Name
  Back_Space ZN,                          !- Zone or ZoneList Name
  RetailStandalone INFIL_SCH_PNNL,        !- Schedule Name
  Flow/ExteriorArea,                      !- Design Flow Rate Calculation Method
  ,                                       !- Design Flow Rate {m3/s}
  ,                                       !- Flow per Zone Floor Area {m3/s-m2}
  0.000297767031421586,                   !- Flow per Exterior Surface Area {m3/s-m2}
  ,                                       !- Air Changes per Hour {1/hr}
  0,                                      !- Constant Term Coefficient
  0,                                      !- Temperature Term Coefficient
  0.224,                                  !- Velocity Term Coefficient
  0;                                      !- Velocity Squared Term Coefficient

ZoneControl:Thermostat,
  Back_Space ZN Thermostat,               !- Name
  Back_Space ZN,                          !- Zone or ZoneList Name
  Back_Space ZN Thermostat Schedule,      !- Control Type Schedule Name
  ThermostatSetpoint:DualSetpoint,        !- Control 1 Object Type
  Retail Back_Space Thermostat 1;         !- Control 1 Name

Schedule:Compact,
  Back_Space ZN Thermostat Schedule,      !- Name
  Back_Space ZN Thermostat Schedule Type Limits, !- Schedule Type Limits Name
  Through: 12/31,                         !- Field 1
  For: AllDays,                           !- Field 2
  Until: 24:00,                           !- Field 3
  4;                                      !- Field 4

ScheduleTypeLimits,
  Back_Space ZN Thermostat Schedule Type Limits, !- Name
  0,                                      !- Lower Limit Value {BasedOnField A3}
  4,                                      !- Upper Limit Value {BasedOnField A3}
  DISCRETE;                               !- Numeric Type

ThermostatSetpoint:DualSetpoint,
  Retail Back_Space Thermostat 1,         !- Name
  RetailStandalone HTGSETP_SCH_NO_OPTIMUM, !- Heating Setpoint Temperature Schedule Name
  RetailStandalone CLGSETP_SCH_NO_SETBACK; !- Cooling Setpoint Temperature Schedule Name

ScheduleTypeLimits,
  Temperature,                            !- Name
  ,                                       !- Lower Limit Value {BasedOnField A3}
  ,                                       !- Upper Limit Value {BasedOnField A3}
  Continuous,                             !- Numeric Type
  temperature;                            !- Unit Type

Schedule:Day:Interval,
  RetailStandalone HTGSETP_SCH_NO_OPTIMUM Default, !- Name
  Temperature,                            !- Schedule Type Limits Name
  No,                                     !- Interpolate to Timestep
  07:00,                                  !- Time 1 {hh:mm}
  15.56,                                  !- Value Until Time 1
  19:00,                                  !- Time 2 {hh:mm}
  21.11,                                  !- Value Until Time 2
  24:00,                                  !- Time 3 {hh:mm}
  15.56;                                  !- Value Until Time 3

Schedule:Day:Interval,
  RetailStandalone HTGSETP_SCH_NO_OPTIMUM Wkdy Day, !- Name
  Temperature,                            !- Schedule Type Limits Name
  No,                                     !- Interpolate to Timestep
  05:00,                                  !- Time 1 {hh:mm}
  15.56,                                  !- Value Until Time 1
  21:00,                                  !- Time 2 {hh:mm}
  21.11,                                  !- Value Until Time 2
  24:00,                                  !- Time 3 {hh:mm}
  15.56;                                  !- Value Until Time 3

Schedule:Day:Interval,
  RetailStandalone HTGSETP_SCH_NO_OPTIMUM Sat Day, !- Name
  Temperature,                            !- Schedule Type Limits Name
  No,                                     !- Interpolate to Timestep
  05:00,                                  !- Time 1 {hh:mm}
  15.56,                                  !- Value Until Time 1
  22:00,                                  !- Time 2 {hh:mm}
  21.11,                                  !- Value Until Time 2
  24:00,                                  !- Time 3 {hh:mm}
  15.56;                                  !- Value Until Time 3

Schedule:Week:Daily,
  RetailStandalone HTGSETP_SCH_NO_OPTIMUM Week Rule - Jan1-Dec31, !- Name
  RetailStandalone HTGSETP_SCH_NO_OPTIMUM Default, !- Sunday Schedule:Day Name
  RetailStandalone HTGSETP_SCH_NO_OPTIMUM Wkdy Day, !- Monday Schedule:Day Name
  RetailStandalone HTGSETP_SCH_NO_OPTIMUM Wkdy Day, !- Tuesday Schedule:Day Name
  RetailStandalone HTGSETP_SCH_NO_OPTIMUM Wkdy Day, !- Wednesday Schedule:Day Name
  RetailStandalone HTGSETP_SCH_NO_OPTIMUM Wkdy Day, !- Thursday Schedule:Day Name
  RetailStandalone HTGSETP_SCH_NO_OPTIMUM Wkdy Day, !- Friday Schedule:Day Name
  RetailStandalone HTGSETP_SCH_NO_OPTIMUM Sat Day, !- Saturday Schedule:Day Name
  RetailStandalone HTGSETP_SCH_NO_OPTIMUM Default, !- Holiday Schedule:Day Name
  RetailStandalone HTGSETP_SCH_NO_OPTIMUM Summer Design Day, !- SummerDesignDay Schedule:Day Name
  RetailStandalone HTGSETP_SCH_NO_OPTIMUM Winter Design Day, !- WinterDesignDay Schedule:Day Name
  RetailStandalone HTGSETP_SCH_NO_OPTIMUM Default, !- CustomDay1 Schedule:Day Name
  RetailStandalone HTGSETP_SCH_NO_OPTIMUM Default; !- CustomDay2 Schedule:Day Name

Schedule:Year,
  RetailStandalone HTGSETP_SCH_NO_OPTIMUM, !- Name
  Temperature,                            !- Schedule Type Limits Name
  RetailStandalone HTGSETP_SCH_NO_OPTIMUM Week Rule - Jan1-Dec31, !- Schedule:Week Name 1
  1,                                      !- Start Month 1
  1,                                      !- Start Day 1
  12,                                     !- End Month 1
  31;                                     !- End Day 1

Schedule:Day:Interval,
  RetailStandalone HTGSETP_SCH_NO_OPTIMUM Summer Design Day, !- Name
  Temperature,                            !- Schedule Type Limits Name
  No,                                     !- Interpolate to Timestep
  24:00,                                  !- Time 1 {hh:mm}
  15.56;                                  !- Value Until Time 1

Schedule:Day:Interval,
  RetailStandalone HTGSETP_SCH_NO_OPTIMUM Winter Design Day, !- Name
  Temperature,                            !- Schedule Type Limits Name
  No,                                     !- Interpolate to Timestep
  06:00,                                  !- Time 1 {hh:mm}
  15.56,                                  !- Value Until Time 1
  07:00,                                  !- Time 2 {hh:mm}
  18.33,                                  !- Value Until Time 2
  21:00,                                  !- Time 3 {hh:mm}
  21.11,                                  !- Value Until Time 3
  24:00,                                  !- Time 4 {hh:mm}
  15.56;                                  !- Value Until Time 4

Schedule:Day:Interval,
  RetailStandalone CLGSETP_SCH_NO_SETBACK Default, !- Name
  Temperature,                            !- Schedule Type Limits Name
  No,                                     !- Interpolate to Timestep
  24:00,                                  !- Time 1 {hh:mm}
  23.89;                                  !- Value Until Time 1

Schedule:Day:Interval,
  RetailStandalone CLGSETP_SCH_NO_SETBACK Default|Sat|Wkdy Day, !- Name
  Temperature,                            !- Schedule Type Limits Name
  No,                                     !- Interpolate to Timestep
  24:00,                                  !- Time 1 {hh:mm}
  23.89;                                  !- Value Until Time 1

Schedule:Week:Daily,
  RetailStandalone CLGSETP_SCH_NO_SETBACK Week Rule - Jan1-Dec31, !- Name
  RetailStandalone CLGSETP_SCH_NO_SETBACK Default, !- Sunday Schedule:Day Name
  RetailStandalone CLGSETP_SCH_NO_SETBACK Default|Sat|Wkdy Day, !- Monday Schedule:Day Name
  RetailStandalone CLGSETP_SCH_NO_SETBACK Default|Sat|Wkdy Day, !- Tuesday Schedule:Day Name
  RetailStandalone CLGSETP_SCH_NO_SETBACK Default|Sat|Wkdy Day, !- Wednesday Schedule:Day Name
  RetailStandalone CLGSETP_SCH_NO_SETBACK Default|Sat|Wkdy Day, !- Thursday Schedule:Day Name
  RetailStandalone CLGSETP_SCH_NO_SETBACK Default|Sat|Wkdy Day, !- Friday Schedule:Day Name
  RetailStandalone CLGSETP_SCH_NO_SETBACK Default|Sat|Wkdy Day, !- Saturday Schedule:Day Name
  RetailStandalone CLGSETP_SCH_NO_SETBACK Default, !- Holiday Schedule:Day Name
  RetailStandalone CLGSETP_SCH_NO_SETBACK Summer Design Day, !- SummerDesignDay Schedule:Day Name
  RetailStandalone CLGSETP_SCH_NO_SETBACK Winter Design Day, !- WinterDesignDay Schedule:Day Name
  RetailStandalone CLGSETP_SCH_NO_SETBACK Default, !- CustomDay1 Schedule:Day Name
  RetailStandalone CLGSETP_SCH_NO_SETBACK Default; !- CustomDay2 Schedule:Day Name

Schedule:Year,
  RetailStandalone CLGSETP_SCH_NO_SETBACK, !- Name
  Temperature,                            !- Schedule Type Limits Name
  RetailStandalone CLGSETP_SCH_NO_SETBACK Week Rule - Jan1-Dec31, !- Schedule:Week Name 1
  1,                                      !- Start Month 1
  1,                                      !- Start Day 1
  12,                                     !- End Month 1
  31;                                     !- End Day 1

Schedule:Day:Interval,
  RetailStandalone CLGSETP_SCH_NO_SETBACK Summer Design Day, !- Name
  Temperature,                            !- Schedule Type Limits Name
  No,                                     !- Interpolate to Timestep
  06:00,                                  !- Time 1 {hh:mm}
  29.44,                                  !- Value Until Time 1
  07:00,                                  !- Time 2 {hh:mm}
  26.67,                                  !- Value Until Time 2
  21:00,                                  !- Time 3 {hh:mm}
  23.89,                                  !- Value Until Time 3
  24:00,                                  !- Time 4 {hh:mm}
  29.44;                                  !- Value Until Time 4

Schedule:Day:Interval,
  RetailStandalone CLGSETP_SCH_NO_SETBACK Winter Design Day, !- Name
  Temperature,                            !- Schedule Type Limits Name
  No,                                     !- Interpolate to Timestep
  24:00,                                  !- Time 1 {hh:mm}
  29.44;                                  !- Value Until Time 1

ZoneHVAC:EquipmentConnections,
  Back_Space ZN,                          !- Zone Name
  Back_Space ZN Equipment List,           !- Zone Conditioning Equipment List Name
  Back_Space ZN Inlet Node List,          !- Zone Air Inlet Node or NodeList Name
  ,                                       !- Zone Air Exhaust Node or NodeList Name
  Node 1,                                 !- Zone Air Node Name
  Back_Space ZN Return Node List;         !- Zone Return Air Node or NodeList Name

NodeList,
  Back_Space ZN Inlet Node List,          !- Name