
OS:Version,
  {a5cf8f71-000f-4d89-b1fe-7b0552c7abd2}, !- Handle
  3.5.0;                                  !- Version Identifier

OS:Facility,
  {21edbb78-a292-4b1e-b2cf-fc536b9e2a82}; !- Handle

OS:Site,
  {de53f2e1-564b-40ed-a73b-59a007a1b176}, !- Handle
  Denver Centennial  Golden   Nr_CO_USA,  !- Name
  39.74,                                  !- Latitude {deg}
  -105.18,                                !- Longitude {deg}
  -7,                                     !- Time Zone {hr}
  1829,                                   !- Elevation {m}
  City;                                   !- Terrain

OS:SimulationControl,
  {f00ed53a-3d5f-490c-9d35-693522a52de6}, !- Handle
  ,                                       !- Do Zone Sizing Calculation
  ,                                       !- Do System Sizing Calculation
  ,                                       !- Do Plant Sizing Calculation
  No,                                     !- Run Simulation for Sizing Periods
  Yes,                                    !- Run Simulation for Weather File Run Periods
  ,                                       !- Loads Convergence Tolerance Value {W}
  ,                                       !- Temperature Convergence Tolerance Value {deltaC}
  ,                                       !- Solar Distribution
  ,                                       !- Maximum Number of Warmup Days
  ,                                       !- Minimum Number of Warmup Days
  No,                                     !- Do HVAC Sizing Simulation for Sizing Periods
  1;                                      !- Maximum Number of HVAC Sizing Simulation Passes

OS:Sizing:Parameters,
  {c5880a2e-4bfa-4afb-82e3-ab0a0b9a08f4}, !- Handle
  1.25,                                   !- Heating Sizing Factor
  1.15;                                   !- Cooling Sizing Factor

OS:Timestep,
  {efa49511-1897-4397-a62a-9787af876de6}, !- Handle
  1;                                      !- Number of Timesteps per Hour

OS:ShadowCalculation,
  {bdda5372-ab26-4e8b-a3dd-e624c3e2e2b3}, !- Handle
  PolygonClipping,                        !- Shading Calculation Method
  ,                                       !- Shading Calculation Update Frequency Method
  20,                                     !- Shading Calculation Update Frequency
  15000,                                  !- Maximum Figures in Shadow Overlap Calculations
  ,                                       !- Polygon Clipping Algorithm
  512,                                    !- Pixel Counting Resolution
  ,                                       !- Sky Diffuse Modeling Algorithm
  No,                                     !- Output External Shading Calculation Results
  No,                                     !- Disable Self-Shading Within Shading Zone Groups
  No;                                     !- Disable Self-Shading From Shading Zone Groups to Other Zones

OS:HeatBalanceAlgorithm,
  {809c415d-4076-4596-ac79-10a23a352fce}, !- Handle
  ConductionTransferFunction,             !- Algorithm
  200;                                    !- Surface Temperature Upper Limit {C}

OS:RunPeriod,
  {bdea5f4f-7aba-45a8-bfd0-205b717a1ae3}, !- Handle
  Run Period 1,                           !- Name
  6,                                      !- Begin Month
  1,                                      !- Begin Day of Month
  6,                                      !- End Month
  1,                                      !- End Day of Month
  ,                                       !- Use Weather File Holidays and Special Days
  ,                                       !- Use Weather File Daylight Saving Period
  ,                                       !- Apply Weekend Holiday Rule
  ,                                       !- Use Weather File Rain Indicators
  ,                                       !- Use Weather File Snow Indicators
  ;                                       !- Number of Times Runperiod to be Repeated

OS:LifeCycleCost:Parameters,
  {894f0d5b-e7c5-47e5-a8c2-e55128d17e74}, !- Handle
  ,                                       !- Analysis Type
  ,                                       !- Discounting Convention
  ,                                       !- Inflation Approach
  ,                                       !- Real Discount Rate
  ,                                       !- Nominal Discount Rate
  ,                                       !- Inflation
  ,                                       !- Base Date Month
  ,                                       !- Base Date Year
  ,                                       !- Service Date Month
  ,                                       !- Service Date Year
  ;                                       !- Length of Study Period in Years

OS:WeatherFile,
  {69b7e60e-d300-42f0-a716-64895eb87a59}, !- Handle
  Denver Centennial  Golden   Nr,         !- City
  CO,                                     !- State Province Region
  USA,                                    !- Country
  TMY3,                                   !- Data Source
  724666,                                 !- WMO Number
  39.74,                                  !- Latitude {deg}
  -105.18,                                !- Longitude {deg}
  -7,                                     !- Time Zone {hr}
  1829,                                   !- Elevation {m}
  /Users/nmoore/github/urbanopt-scenario-gem/spec/test/weather/urbanopt_scenario_tests.epw, !- Url
  ;                                       !- Checksum

OS:Site:WaterMainsTemperature,
  {bd9eaee5-e263-46d9-aab6-82f25f1d9085}, !- Handle
  Correlation,                            !- Calculation Method
  ,                                       !- Temperature Schedule Name
  9.7,                                    !- Annual Average Outdoor Air Temperature {C}
  22.8;                                   !- Maximum Difference In Monthly Average Outdoor Air Temperatures {deltaC}

OS:SizingPeriod:DesignDay,
  {5deee487-1305-4e88-a564-ebcb6312c9fc}, !- Handle
  Denver Centennial  Golden   N Ann Clg .4% Condns DB=>MWB 1, !- Name
  33,                                     !- Maximum Dry-Bulb Temperature {C}
  15.2,                                   !- Daily Dry-Bulb Temperature Range {deltaC}
  81198,                                  !- Barometric Pressure {Pa}
  4.9,                                    !- Wind Speed {m/s}
  0,                                      !- Wind Direction {deg}
  ,                                       !- Sky Clearness
  No,                                     !- Rain Indicator
  No,                                     !- Snow Indicator
  21,                                     !- Day of Month
  7,                                      !- Month
  SummerDesignDay,                        !- Day Type
  No,                                     !- Daylight Saving Time Indicator
  Wetbulb,                                !- Humidity Condition Type
  ,                                       !- Humidity Condition Day Schedule Name
  15.7,                                   !- Wetbulb or DewPoint at Maximum Dry-Bulb {C}
  ,                                       !- Humidity Ratio at Maximum Dry-Bulb {kgWater/kgDryAir}
  ,                                       !- Enthalpy at Maximum Dry-Bulb {J/kg}
  DefaultMultipliers,                     !- Dry-Bulb Temperature Range Modifier Type
  ,                                       !- Dry-Bulb Temperature Range Modifier Day Schedule Name
  ASHRAETau,                              !- Solar Model Indicator
  ,                                       !- Beam Solar Day Schedule Name
  ,                                       !- Diffuse Solar Day Schedule Name
  0.424,                                  !- ASHRAE Clear Sky Optical Depth for Beam Irradiance {dimensionless}
  2.025;                                  !- ASHRAE Clear Sky Optical Depth for Diffuse Irradiance {dimensionless}

OS:SizingPeriod:DesignDay,
  {f3e77901-1956-420f-a88f-9e57087fd2b2}, !- Handle
  Denver Centennial  Golden   N Ann Clg .4% Condns WB=>MDB 1, !- Name
  27.3,                                   !- Maximum Dry-Bulb Temperature {C}
  15.2,                                   !- Daily Dry-Bulb Temperature Range {deltaC}
  81198,                                  !- Barometric Pressure {Pa}
  4.9,                                    !- Wind Speed {m/s}
  0,                                      !- Wind Direction {deg}
  ,                                       !- Sky Clearness
  No,                                     !- Rain Indicator
  No,                                     !- Snow Indicator
  21,                                     !- Day of Month
  7,                                      !- Month
  SummerDesignDay,                        !- Day Type
  No,                                     !- Daylight Saving Time Indicator
  Wetbulb,                                !- Humidity Condition Type
  ,                                       !- Humidity Condition Day Schedule Name
  18.4,                                   !- Wetbulb or DewPoint at Maximum Dry-Bulb {C}
  ,                                       !- Humidity Ratio at Maximum Dry-Bulb {kgWater/kgDryAir}
  ,                                       !- Enthalpy at Maximum Dry-Bulb {J/kg}
  DefaultMultipliers,                     !- Dry-Bulb Temperature Range Modifier Type
  ,                                       !- Dry-Bulb Temperature Range Modifier Day Schedule Name
  ASHRAETau,                              !- Solar Model Indicator
  ,                                       !- Beam Solar Day Schedule Name
  ,                                       !- Diffuse Solar Day Schedule Name
  0.424,                                  !- ASHRAE Clear Sky Optical Depth for Beam Irradiance {dimensionless}
  2.025;                                  !- ASHRAE Clear Sky Optical Depth for Diffuse Irradiance {dimensionless}

OS:SizingPeriod:DesignDay,
  {157883da-8639-4c0d-b9e3-38b4e1c151cf}, !- Handle
  Denver Centennial  Golden   N Ann Htg 99.6% Condns DB 1, !- Name
  -18.8,                                  !- Maximum Dry-Bulb Temperature {C}
  0,                                      !- Daily Dry-Bulb Temperature Range {deltaC}
  81198,                                  !- Barometric Pressure {Pa}
  3,                                      !- Wind Speed {m/s}
  340,                                    !- Wind Direction {deg}
  0,                                      !- Sky Clearness
  No,                                     !- Rain Indicator
  No,                                     !- Snow Indicator
  21,                                     !- Day of Month
  12,                                     !- Month
  WinterDesignDay,                        !- Day Type
  No,                                     !- Daylight Saving Time Indicator
  Wetbulb,                                !- Humidity Condition Type
  ,                                       !- Humidity Condition Day Schedule Name
  -18.8,                                  !- Wetbulb or DewPoint at Maximum Dry-Bulb {C}
  ,                                       !- Humidity Ratio at Maximum Dry-Bulb {kgWater/kgDryAir}
  ,                                       !- Enthalpy at Maximum Dry-Bulb {J/kg}
  DefaultMultipliers,                     !- Dry-Bulb Temperature Range Modifier Type
  ,                                       !- Dry-Bulb Temperature Range Modifier Day Schedule Name
  ASHRAEClearSky;                         !- Solar Model Indicator

OS:ClimateZones,
  {96fdad1d-778d-4e26-8156-e00fbf92ea50}, !- Handle
  ASHRAE,                                 !- Climate Zone Institution Name 1
  ANSI/ASHRAE Standard 169,               !- Climate Zone Document Name 1
  2006,                                   !- Climate Zone Document Year 1
  5B;                                     !- Climate Zone Value 1

OS:YearDescription,
  {7e46fa82-7d3f-442d-8cf1-2b7d69412078}, !- Handle
  2012,                                   !- Calendar Year
  ,                                       !- Day of Week for Start Day
  ;                                       !- Is Leap Year

OS:Building,
  {83bcca6e-4329-4c16-a1fb-d2a8816d369b}, !- Handle
  90.1-2004|SmallOffice,                  !- Name
  ,                                       !- Building Sector Type
  ,                                       !- North Axis {deg}
  ,                                       !- Nominal Floor to Floor Height {m}
  ,                                       !- Space Type Name
  {ed821f00-69a8-4c37-9566-5e385d8dae21}, !- Default Construction Set Name
  ,                                       !- Default Schedule Set Name
  ,                                       !- Standards Number of Stories
  ,                                       !- Standards Number of Above Ground Stories
  ,                                       !- Standards Template
  Office;                                 !- Standards Building Type

OS:SpaceType,
  {6ebcc249-a532-4a2b-a4f8-47e6878eefeb}, !- Handle
  Office WholeBuilding - Sm Office - 90.1-2004, !- Name
  ,                                       !- Default Construction Set Name
  {44eae80d-999d-485e-b7ad-27a24bf7331e}, !- Default Schedule Set Name
  {8c0345fc-cba6-42e5-bb0b-12d6bb0f43dc}, !- Group Rendering Name
  {1b138f30-bf89-4cf7-887f-f23134e25220}, !- Design Specification Outdoor Air Object Name
  ,                                       !- Standards Template
  Office,                                 !- Standards Building Type
  WholeBuilding - Sm Office;              !- Standards Space Type

OS:Rendering:Color,
  {8c0345fc-cba6-42e5-bb0b-12d6bb0f43dc}, !- Handle
  Office WholeBuilding - Sm Office,       !- Name
  120,                                    !- Rendering Red Value
  230,                                    !- Rendering Green Value
  199;                                    !- Rendering Blue Value

OS:BuildingStory,
  {e6722c91-ba52-4d0e-a295-e4584a7631b3}, !- Handle
  Story Ground,                           !- Name
  0,                                      !- Nominal Z Coordinate {m}
  3.048,                                  !- Nominal Floor to Floor Height {m}
  ,                                       !- Default Construction Set Name
  ,                                       !- Default Schedule Set Name
  ;                                       !- Group Rendering Name

OS:Space,
  {159e5916-28e1-443d-b3e5-be753b329960}, !- Handle
  Office WholeBuilding - Sm Office  - Story Ground, !- Name
  {6ebcc249-a532-4a2b-a4f8-47e6878eefeb}, !- Space Type Name
  ,                                       !- Default Construction Set Name
  ,                                       !- Default Schedule Set Name
  -0,                                     !- Direction of Relative North {deg}
  -5.9024266196201,                       !- X Origin {m}
  -3.93495107974674,                      !- Y Origin {m}
  0,                                      !- Z Origin {m}
  {e6722c91-ba52-4d0e-a295-e4584a7631b3}, !- Building Story Name
  {62bc17e8-1b47-4940-9248-44c68c70f693}; !- Thermal Zone Name

OS:Surface,
  {fa9e3608-c0b7-4a4c-b735-53aef1e0cb88}, !- Handle
  Surface 1,                              !- Name
  Floor,                                  !- Surface Type
  ,                                       !- Construction Name
  {159e5916-28e1-443d-b3e5-be753b329960}, !- Space Name
  Ground,                                 !- Outside Boundary Condition
  ,                                       !- Outside Boundary Condition Object
  NoSun,                                  !- Sun Exposure
  NoWind,                                 !- Wind Exposure
  ,                                       !- View Factor to Ground
  ,                                       !- Number of Vertices
  2.66453525910038e-15, -4.44089209850063e-15, 0, !- X,Y,Z Vertex 1 {m}
  2.66453525910038e-15, 7.86990215949348, 0, !- X,Y,Z Vertex 2 {m}
  11.8048532392402, 7.86990215949348, 0,  !- X,Y,Z Vertex 3 {m}
  11.8048532392402, -4.44089209850063e-15, 0; !- X,Y,Z Vertex 4 {m}

OS:Surface,
  {27876f2b-c2bf-4646-b122-d11e20c9cee0}, !- Handle
  Surface 2,                              !- Name
  Wall,                                   !- Surface Type
  ,                                       !- Construction Name
  {159e5916-28e1-443d-b3e5-be753b329960}, !- Space Name
  Outdoors,                               !- Outside Boundary Condition
  ,                                       !- Outside Boundary Condition Object
  SunExposed,                             !- Sun Exposure
  WindExposed,                            !- Wind Exposure
  ,                                       !- View Factor to Ground
  ,                                       !- Number of Vertices
  2.66453525910038e-15, 7.86990215949348, 3.048, !- X,Y,Z Vertex 1 {m}
  2.66453525910038e-15, 7.86990215949348, 0, !- X,Y,Z Vertex 2 {m}
  2.66453525910038e-15, -4.44089209850063e-15, 0, !- X,Y,Z Vertex 3 {m}
  2.66453525910038e-15, -4.44089209850063e-15, 3.048; !- X,Y,Z Vertex 4 {m}

OS:Surface,
  {90b33845-4832-444d-8d80-6b2d7198eeee}, !- Handle
  Surface 3,                              !- Name
  Wall,                                   !- Surface Type
  ,                                       !- Construction Name
  {159e5916-28e1-443d-b3e5-be753b329960}, !- Space Name
  Outdoors,                               !- Outside Boundary Condition
  ,                                       !- Outside Boundary Condition Object
  SunExposed,                             !- Sun Exposure
  WindExposed,                            !- Wind Exposure
  ,                                       !- View Factor to Ground
  ,                                       !- Number of Vertices
  11.8048532392402, 7.86990215949348, 3.048, !- X,Y,Z Vertex 1 {m}
  11.8048532392402, 7.86990215949348, 0,  !- X,Y,Z Vertex 2 {m}
  2.66453525910038e-15, 7.86990215949348, 0, !- X,Y,Z Vertex 3 {m}
  2.66453525910038e-15, 7.86990215949348, 3.048; !- X,Y,Z Vertex 4 {m}

OS:Surface,
  {769a82ce-3cbf-4425-858e-eb6f8b891bed}, !- Handle
  Surface 4,                              !- Name
  Wall,                                   !- Surface Type
  ,                                       !- Construction Name
  {159e5916-28e1-443d-b3e5-be753b329960}, !- Space Name
  Outdoors,                               !- Outside Boundary Condition
  ,                                       !- Outside Boundary Condition Object
  SunExposed,                             !- Sun Exposure
  WindExposed,                            !- Wind Exposure
  ,                                       !- View Factor to Ground
  ,                                       !- Number of Vertices
  11.8048532392402, -4.44089209850063e-15, 3.048, !- X,Y,Z Vertex 1 {m}
  11.8048532392402, -4.44089209850063e-15, 0, !- X,Y,Z Vertex 2 {m}
  11.8048532392402, 7.86990215949348, 0,  !- X,Y,Z Vertex 3 {m}
  11.8048532392402, 7.86990215949348, 3.048; !- X,Y,Z Vertex 4 {m}

OS:Surface,
  {34a79a94-e900-42f4-ad1d-f6e641d2e98e}, !- Handle
  Surface 5,                              !- Name
  Wall,                                   !- Surface Type
  ,                                       !- Construction Name
  {159e5916-28e1-443d-b3e5-be753b329960}, !- Space Name
  Outdoors,                               !- Outside Boundary Condition
  ,                                       !- Outside Boundary Condition Object
  SunExposed,                             !- Sun Exposure
  WindExposed,                            !- Wind Exposure
  ,                                       !- View Factor to Ground
  ,                                       !- Number of Vertices
  2.66453525910038e-15, -4.44089209850063e-15, 3.048, !- X,Y,Z Vertex 1 {m}
  2.66453525910038e-15, -4.44089209850063e-15, 0, !- X,Y,Z Vertex 2 {m}
  11.8048532392402, -4.44089209850063e-15, 0, !- X,Y,Z Vertex 3 {m}
  11.8048532392402, -4.44089209850063e-15, 3.048; !- X,Y,Z Vertex 4 {m}

OS:Surface,
  {138711cf-1db7-4fc1-a9cf-5ec6571d809c}, !- Handle
  Surface 6,                              !- Name
  RoofCeiling,                            !- Surface Type
  ,                                       !- Construction Name
  {159e5916-28e1-443d-b3e5-be753b329960}, !- Space Name
  Outdoors,                               !- Outside Boundary Condition
  ,                                       !- Outside Boundary Condition Object
  SunExposed,                             !- Sun Exposure
  WindExposed,                            !- Wind Exposure
  ,                                       !- View Factor to Ground
  ,                                       !- Number of Vertices
  11.8048532392402, -4.44089209850063e-15, 3.048, !- X,Y,Z Vertex 1 {m}
  11.8048532392402, 7.86990215949348, 3.048, !- X,Y,Z Vertex 2 {m}
  2.66453525910038e-15, 7.86990215949348, 3.048, !- X,Y,Z Vertex 3 {m}
  2.66453525910038e-15, -4.44089209850063e-15, 3.048; !- X,Y,Z Vertex 4 {m}

OS:ThermalZone,
  {62bc17e8-1b47-4940-9248-44c68c70f693}, !- Handle
  Zone Office WholeBuilding - Sm Office  - Story Ground, !- Name
  1,                                      !- Multiplier
  ,                                       !- Ceiling Height {m}
  ,                                       !- Volume {m3}
  ,                                       !- Floor Area {m2}
  ,                                       !- Zone Inside Convection Algorithm
  ,                                       !- Zone Outside Convection Algorithm
  ,                                       !- Zone Conditioning Equipment List Name
  {94f008e8-ad5b-4d6c-8208-3e8eb650eb4f}, !- Zone Air Inlet Port List
  {3b318b88-4485-4fb6-8170-0dedae7bb034}, !- Zone Air Exhaust Port List
  {9e245fec-9573-4181-ac49-47e8ad07ff12}, !- Zone Air Node Name
  {2a5a788d-5a89-49b5-a21d-3656698ce5ab}, !- Zone Return Air Port List
  ,                                       !- Primary Daylighting Control Name
  ,                                       !- Fraction of Zone Controlled by Primary Daylighting Control
  ,                                       !- Secondary Daylighting Control Name
  ,                                       !- Fraction of Zone Controlled by Secondary Daylighting Control
  ,                                       !- Illuminance Map Name
  ,                                       !- Group Rendering Name
  {00a5df40-01ae-43e5-9b6b-4c310f754fef}, !- Thermostat Name
  No;                                     !- Use Ideal Air Loads

OS:Node,
  {eefb27f0-b6ce-4c7e-b7e8-6d0effb4ea5e}, !- Handle
  Zone Office WholeBuilding - Sm Office  - Story Ground Zone Air Node, !- Name
  {9e245fec-9573-4181-ac49-47e8ad07ff12}, !- Inlet Port
  ;                                       !- Outlet Port

OS:Connection,
  {9e245fec-9573-4181-ac49-47e8ad07ff12}, !- Handle
  {62bc17e8-1b47-4940-9248-44c68c70f693}, !- Source Object
  11,                                     !- Outlet Port
  {eefb27f0-b6ce-4c7e-b7e8-6d0effb4ea5e}, !- Target Object
  2;                                      !- Inlet Port

OS:PortList,
  {94f008e8-ad5b-4d6c-8208-3e8eb650eb4f}, !- Handle
  {62bc17e8-1b47-4940-9248-44c68c70f693}, !- HVAC Component
  {e8124eca-c6d1-42e0-8f2a-89bc3122d2e5}; !- Port 1

OS:PortList,
  {3b318b88-4485-4fb6-8170-0dedae7bb034}, !- Handle
  {62bc17e8-1b47-4940-9248-44c68c70f693}; !- HVAC Component

OS:PortList,
  {2a5a788d-5a89-49b5-a21d-3656698ce5ab}, !- Handle
  {62bc17e8-1b47-4940-9248-44c68c70f693}, !- HVAC Component
  {64c41a45-a2b8-4c5e-ac91-87e1dadd0d21}; !- Port 1

OS:Sizing:Zone,
  {3f5527bc-b7a8-4c18-8f70-bed4a18a4e32}, !- Handle
  {62bc17e8-1b47-4940-9248-44c68c70f693}, !- Zone or ZoneList Name
  SupplyAirTemperature,                   !- Zone Cooling Design Supply Air Temperature Input Method
  12.7777777777778,                       !- Zone Cooling Design Supply Air Temperature {C}
  11.11,                                  !- Zone Cooling Design Supply Air Temperature Difference {deltaC}
  SupplyAirTemperature,                   !- Zone Heating Design Supply Air Temperature Input Method
  50.0000000000001,                       !- Zone Heating Design Supply Air Temperature {C}
  11.11,                                  !- Zone Heating Design Supply Air Temperature Difference {deltaC}
  0.0085,                                 !- Zone Cooling Design Supply Air Humidity Ratio {kg-H2O/kg-air}
  0.008,                                  !- Zone Heating Design Supply Air Humidity Ratio {kg-H2O/kg-air}
  ,                                       !- Zone Heating Sizing Factor
  ,                                       !- Zone Cooling Sizing Factor
  DesignDay,                              !- Cooling Design Air Flow Method
  ,                                       !- Cooling Design Air Flow Rate {m3/s}
  ,                                       !- Cooling Minimum Air Flow per Zone Floor Area {m3/s-m2}
  ,                                       !- Cooling Minimum Air Flow {m3/s}
  ,                                       !- Cooling Minimum Air Flow Fraction
  DesignDay,                              !- Heating Design Air Flow Method
  ,                                       !- Heating Design Air Flow Rate {m3/s}
  ,                                       !- Heating Maximum Air Flow per Zone Floor Area {m3/s-m2}
  ,                                       !- Heating Maximum Air Flow {m3/s}
  ,                                       !- Heating Maximum Air Flow Fraction
  No,                                     !- Account for Dedicated Outdoor Air System
  NeutralSupplyAir,                       !- Dedicated Outdoor Air System Control Strategy
  autosize,                               !- Dedicated Outdoor Air Low Setpoint Temperature for Design {C}
  autosize,                               !- Dedicated Outdoor Air High Setpoint Temperature for Design {C}
  Sensible Load Only No Latent Load,      !- Zone Load Sizing Method
  HumidityRatioDifference,                !- Zone Latent Cooling Design Supply Air Humidity Ratio Input Method
  ,                                       !- Zone Dehumidification Design Supply Air Humidity Ratio {kgWater/kgDryAir}
  0.005,                                  !- Zone Cooling Design Supply Air Humidity Ratio Difference {kgWater/kgDryAir}
  HumidityRatioDifference,                !- Zone Latent Heating Design Supply Air Humidity Ratio Input Method
  ,                                       !- Zone Humidification Design Supply Air Humidity Ratio {kgWater/kgDryAir}
  0.005;                                  !- Zone Humidification Design Supply Air Humidity Ratio Difference {kgWater/kgDryAir}

OS:ZoneHVAC:EquipmentList,
  {ac3d81b2-377e-4923-8004-4e9b88be088b}, !- Handle
  Zone Office WholeBuilding - Sm Office  - Story Ground Zone HVAC Equipment List, !- Name
  {62bc17e8-1b47-4940-9248-44c68c70f693}, !- Thermal Zone
  ,                                       !- Load Distribution Scheme
  {4751e66a-9aea-4e0a-8121-df8de90b1000}, !- Zone Equipment 1
  1,                                      !- Zone Equipment Cooling Sequence 1
  1,                                      !- Zone Equipment Heating or No-Load Sequence 1
  ,                                       !- Zone Equipment Sequential Cooling Fraction Schedule Name 1
  ;                                       !- Zone Equipment Sequential Heating Fraction Schedule Name 1

OS:SubSurface,
  {c0f38b9f-3ec2-4163-8f87-6a760df66a48}, !- Handle
  Sub Surface 1,                          !- Name
  FixedWindow,                            !- Sub Surface Type
  ,                                       !- Construction Name
  {90b33845-4832-444d-8d80-6b2d7198eeee}, !- Surface Name
  ,                                       !- Outside Boundary Condition Object
  ,                                       !- View Factor to Ground
  ,                                       !- Frame and Divider Name
  ,                                       !- Multiplier
  ,                                       !- Number of Vertices
  11.7794532392402, 7.86990215949348, 1.22117597879874, !- X,Y,Z Vertex 1 {m}
  11.7794532392402, 7.86990215949348, 0.762, !- X,Y,Z Vertex 2 {m}
  0.0254000000000048, 7.86990215949348, 0.762, !- X,Y,Z Vertex 3 {m}
  0.0254000000000048, 7.86990215949348, 1.22117597879874; !- X,Y,Z Vertex 4 {m}

OS:SubSurface,
  {4c348fa2-8d99-4b95-8680-25e22ac53611}, !- Handle
  Sub Surface 2,                          !- Name
  FixedWindow,                            !- Sub Surface Type
  ,                                       !- Construction Name
  {27876f2b-c2bf-4646-b122-d11e20c9cee0}, !- Surface Name
  ,                                       !- Outside Boundary Condition Object
  ,                                       !- View Factor to Ground
  ,                                       !- Frame and Divider Name
  ,                                       !- Multiplier
  ,                                       !- Number of Vertices
  2.66453525910038e-15, 7.84450215949348, 1.22217038707594, !- X,Y,Z Vertex 1 {m}
  2.66453525910038e-15, 7.84450215949348, 0.762, !- X,Y,Z Vertex 2 {m}
  2.66453525910038e-15, 0.025399999999995, 0.762, !- X,Y,Z Vertex 3 {m}
  2.66453525910038e-15, 0.025399999999995, 1.22217038707594; !- X,Y,Z Vertex 4 {m}

OS:SubSurface,
  {0ef4ae27-8a19-45fb-bbad-7e6f3db27c63}, !- Handle
  Sub Surface 3,                          !- Name
  FixedWindow,                            !- Sub Surface Type
  ,                                       !- Construction Name
  {34a79a94-e900-42f4-ad1d-f6e641d2e98e}, !- Surface Name
  ,                                       !- Outside Boundary Condition Object
  ,                                       !- View Factor to Ground
  ,                                       !- Frame and Divider Name
  ,                                       !- Multiplier
  ,                                       !- Number of Vertices
  0.0254000000000027, -4.44089209850063e-15, 1.22117597879874, !- X,Y,Z Vertex 1 {m}
  0.0254000000000027, -4.44089209850063e-15, 0.762, !- X,Y,Z Vertex 2 {m}
  11.7794532392402, -4.44089209850063e-15, 0.762, !- X,Y,Z Vertex 3 {m}