!-Generator IDFEditor 1.51
!-Option SortedOrder UseSpecialFormat

!-NOTE: All comments with '!-' are ignored by the IDFEditor and are generated automatically.
!-      Use '!' comments if they need to be retained when using the IDFEditor.

!-   ===========  ALL OBJECTS IN CLASS: VERSION ===========

Version,9.3;

!-   ===========  ALL OBJECTS IN CLASS: TYPELIMITS ===========


ScheduleTypeLimits,
    TES Control Modes,       !- Name
    0,                       !- Lower Limit Value
    5,                       !- Upper Limit Value
    Discrete;                !- Numeric Type

ScheduleTypeLimits,
    Fractional 1,            !- Name
    0,                       !- Lower Limit Value
    1,                       !- Upper Limit Value
    Continuous,              !- Numeric Type
    Dimensionless;           !- Unit Type


!-   ===========  ALL OBJECTS IN CLASS: SCHEDULE:COMPACT ===========

Schedule:Compact,
    Simple User Sched,       !- Name
    TES Control Modes,       !- Schedule Type Limits Name
    Through: 12/31,          !- Field 1
    For: AllDays,            !- Field 2
    Until: 12:00, 1.0,         !- Field 4
    Until: 24:00, 5.0;         !- Field 6

Schedule:Compact,
    TES Sched 1: TES Off,    !- Name
    TES Control Modes,       !- Schedule Type Limits Name
    Through: 12/31,          !- Field 1
    For: AllDays,            !- Field 2
    Until: 24:00, 1.0;       !- Field 4

Schedule:Compact,
    TES Sched 2: 1-5 Peak,   !- Name
    TES Control Modes,       !- Schedule Type Limits Name
    Through: 12/31,          !- Field 1
    For: AllDays,            !- Field 2
    Until: 04:00, 4.0,       !- Field 4
    Until: 13:00, 1.0,       !- Field 6
    Until: 17:00, 5.0,       !- Field 8
    Until: 22:00, 1.0,       !- Field 10
    Until: 24:00, 4.0;       !- Field 12

Schedule:Compact,
    TES Sched 3: 3-8 Peak,   !- Name
    TES Control Modes,       !- Schedule Type Limits Name
    Through: 12/31,          !- Field 1
    For: AllDays,            !- Field 2
    Until: 06:00, 4.0,       !- Field 4
    Until: 15:00, 1.0,       !- Field 6
    Until: 20:00, 5.0,       !- Field 8
    Until: 24:00, 1.0;       !- Field 10

Schedule:Compact,
    TES Sched 4: GSS-T,      !- Name
    TES Control Modes,       !- Schedule Type Limits Name
    Through: 05/30,          !- Field 1
    For: AllDays,            !- Field 2
    Until: 24:00, 1.0,       !- Field 4
    Through: 10/01,          !- Field 5
    For: AllDays,            !- Field 6
    Until: 07:00, 4.0,       !- Field 8
    Until: 15:00, 1.0,       !- Field 10
    Until: 20:00, 5.0,       !- Field 12
    Until: 23:00, 1.0,       !- Field 14
    Until: 24:00, 4.0,       !- Field 16
    Through: 12/31,          !- Field 17
    For: AllDays,            !- Field 18
    Until: 24:00, 1.0;       !- Field 20


!-   ===========  ALL OBJECTS IN CLASS: SCHEDULE:CONSTANT ===========

Schedule:Constant,Always On Continuous,Fractional 1,1;

!-   ===========  ALL OBJECTS IN CLASS: CURVE:QUADRATIC ===========


Curve:Quadratic,
    Cool-PLF-fPLR,           !- Name
    0.90949556,              !- Coefficient1 Constant
    0.09864773,              !- Coefficient2 x
    -0.00819488,             !- Coefficient3 x**2
    0,                       !- Minimum Value of x
    1,                       !- Maximum Value of x
    0.7,                     !- Minimum Curve Output
    1;                       !- Maximum Curve Output

Curve:Quadratic,
    Measured_CoolCStandard10Ton_CapFF,  !- Name
    0.7685,                  !- Coefficient1 Constant
    0.2315,                  !- Coefficient2 x
    0,                       !- Coefficient3 x**2
    0.776,                   !- Minimum Value of x
    1.197;                   !- Maximum Value of x

Curve:Quadratic,
    Measured_CoolCStandard10Ton_EIRFFF,  !- Name
    1.192,                   !- Coefficient1 Constant
    -0.1917,                 !- Coefficient2 x
    0,                       !- Coefficient3 x**2
    0.776,                   !- Minimum Value of x
    1.197;                   !- Maximum Value of x

Curve:Quadratic,
    No_PLR_Degredation,      !- Name
    1.0,                     !- Coefficient1 Constant
    0,                       !- Coefficient2 x
    0,                       !- Coefficient3 x**2
    0.0,                     !- Minimum Value of x
    1.0;                     !- Maximum Value of x

Curve:Quadratic,
    Cool-SHR-fFF,            !- Name
    0.9317,                  !- Coefficient1 Constant
    -0.0077,                 !- Coefficient2 x
    0.0760,                  !- Coefficient3 x**2
    0.69,                    !- Minimum Value of x
    1.30;                    !- Maximum Value of x

Curve:Quadratic,
    Discharge-SHR-fFF,       !- Name
    0.60557628,              !- Coefficient1 Constant
    0.506516665,             !- Coefficient2 x
    -0.12647141,             !- Coefficient3 x**2
    0.2,                     !- Minimum Value of x
    1.00;                    !- Maximum Value of x


!-   ===========  ALL OBJECTS IN CLASS: CURVE:CUBIC ===========

Curve:Cubic,
    ConstantCubic,           !- Name
    1,                       !- Coefficient1 Constant
    0,                       !- Coefficient2 x
    0,                       !- Coefficient3 x**2
    0,                       !- Coefficient4 x**3
    -100,                    !- Minimum Value of x
    100;                     !- Maximum Value of x

Curve:Cubic,
    Discharge-Cap-fFF,       !- Name
    0.743258739392434,       !- Coefficient1 Constant
    0.167765026703717,       !- Coefficient2 x
    0.0852727911986869,      !- Coefficient3 x**2
    0,                       !- Coefficient4 x**3
    -100,                    !- Minimum Value of x
    100;                     !- Maximum Value of x


!-   ===========  ALL OBJECTS IN CLASS: CURVE:BIQUADRATIC ===========

Curve:Biquadratic,
    Cool-Cap-fT,             !- Name
    0.9712123,               !- Coefficient1 Constant
    -0.015275502,            !- Coefficient2 x
    0.0014434524,            !- Coefficient3 x**2
    -0.00039321,             !- Coefficient4 y
    -0.0000068364,           !- Coefficient5 y**2
    -0.0002905956,           !- Coefficient6 x*y
    -100,                    !- Minimum Value of x
    100,                     !- Maximum Value of x
    -100,                    !- Minimum Value of y
    100;                     !- Maximum Value of y

Curve:Biquadratic,
    Cool-EIR-fT,             !- Name
    0.28687133,              !- Coefficient1 Constant
    0.023902164,             !- Coefficient2 x
    -0.000810648,            !- Coefficient3 x**2
    0.013458546,             !- Coefficient4 y
    0.0003389364,            !- Coefficient5 y**2
    -0.0004870044,           !- Coefficient6 x*y
    -100,                    !- Minimum Value of x
    100,                     !- Maximum Value of x
    -100,                    !- Minimum Value of y
    100;                     !- Maximum Value of y

Curve:Biquadratic,
    Measured_LowSpeedCoolCapLSFT,  !- Name
    0.4136,                  !- Coefficient1 Constant
    0.03105,                 !- Coefficient2 x
    0,                       !- Coefficient3 x**2
    0.006952,                !- Coefficient4 y
    -0.00021280,             !- Coefficient5 y**2
    0,                       !- Coefficient6 x*y
    11.1,                    !- Minimum Value of x
    29.4,                    !- Maximum Value of x
    10.0,                    !- Minimum Value of y
    50.3;                    !- Maximum Value of y

Curve:Biquadratic,
    Measured_CoolCStandard10Ton_CapFT,  !- Name
    0.52357,                 !- Coefficient1 Constant
    0.03478,                 !- Coefficient2 x
    0,                       !- Coefficient3 x**2
    -0.001915,               !- Coefficient4 y
    -0.00010838,             !- Coefficient5 y**2
    0,                       !- Coefficient6 x*y
    11.1,                    !- Minimum Value of x
    29.4,                    !- Maximum Value of x
    10.0,                    !- Minimum Value of y
    50.3;                    !- Maximum Value of y

Curve:Biquadratic,
    Measured_LowSpeedCoolEIRLSFT,  !- Name
    1.1389,                  !- Coefficient1 Constant
    -0.04518,                !- Coefficient2 x
    0.0014298,               !- Coefficient3 x**2
    0.006044,                !- Coefficient4 y
    0.0006745,               !- Coefficient5 y**2
    -0.0012325,              !- Coefficient6 x*y
    11.1,                    !- Minimum Value of x
    29.4,                    !- Maximum Value of x
    10.0,                    !- Minimum Value of y
    50.3;                    !- Maximum Value of y

Curve:Biquadratic,
    Measured_CoolCStandard10Ton_EIRFT,  !- Name
    0.9847,                  !- Coefficient1 Constant
    -0.04285,                !- Coefficient2 x
    0.0013562,               !- Coefficient3 x**2
    0.009934,                !- Coefficient4 y
    0.0006398,               !- Coefficient5 y**2
    -0.0011690,              !- Coefficient6 x*y
    11.1,                    !- Minimum Value of x
    29.4,                    !- Maximum Value of x
    10.0,                    !- Minimum Value of y
    50.3;                    !- Maximum Value of y

Curve:Biquadratic,
    Cool-SHR-fT,             !- Name
    1.3294540786,            !- Coefficient1 Constant
    -0.0990649255,           !- Coefficient2 x
    0.0008310043,            !- Coefficient3 x**2
    0.0652277735,            !- Coefficient4 y
    -0.0000793358,           !- Coefficient5 y**2
    -0.0005874422,           !- Coefficient6 x*y
    24.44,                   !- Minimum Value of x
    26.67,                   !- Maximum Value of x
    29.44,                   !- Minimum Value of y
    46.1,                    !- Maximum Value of y
    0.6661,                  !- Minimum Curve Output
    1.6009,                  !- Maximum Curve Output
    Temperature,             !- Input Unit Type for X
    Temperature,             !- Input Unit Type for Y
    Dimensionless;           !- Output Unit Type

Curve:Biquadratic,
    ConstantBi,              !- Name
    1.0,                     !- Coefficient1 Constant
    0.0,                     !- Coefficient2 x
    0.0,                     !- Coefficient3 x**2
    0.0,                     !- Coefficient4 y
    0.0,                     !- Coefficient5 y**2
    0.0,                     !- Coefficient6 x*y
    -100,                    !- Minimum Value of x
    100,                     !- Maximum Value of x
    -100,                    !- Minimum Value of y
    100;                     !- Maximum Value of y

Curve:Biquadratic,
    Discharge-Cap-fT,        !- Name
    -0.561476105575098,      !- Coefficient1 Constant
    0.133948946696947,       !- Coefficient2 x
    -0.0027652398813276,     !- Coefficient3 x**2
    0.0,                     !- Coefficient4 y
    0.0,                     !- Coefficient5 y**2
    0.0,                     !- Coefficient6 x*y
    -100,                    !- Minimum Value of x
    100,                     !- Maximum Value of x
    -100,                    !- Minimum Value of y
    100;                     !- Maximum Value of y

Curve:Biquadratic,
    Charge-EIR-fT,           !- Name
    0.28687133,              !- Coefficient1 Constant
    0.013458546,             !- Coefficient2 x
    0.0003389364,            !- Coefficient3 x**2
    0.0,                     !- Coefficient4 y
    0.0,                     !- Coefficient5 y**2
    0.0,                     !- Coefficient6 x*y
    -100,                    !- Minimum Value of x
    100,                     !- Maximum Value of x
    -100,                    !- Minimum Value of y
    100;                     !- Maximum Value of y

Curve:Biquadratic,
    Charge-Cap-fT,           !- Name
    0.9712123,               !- Coefficient1 Constant
    -0.00039321,             !- Coefficient2 x
    -0.0000068364,           !- Coefficient3 x**2
    0.0,                     !- Coefficient4 y
    0.0,                     !- Coefficient5 y**2
    0.0,                     !- Coefficient6 x*y
    -100,                    !- Minimum Value of x
    100,                     !- Maximum Value of x
    -100,                    !- Minimum Value of y
    100;                     !- Maximum Value of y

Curve:Biquadratic,
    Discharge-SHR-fT,        !- Name
    -76.3312028672366,       !- Coefficient1 Constant
    3.69083877577677,        !- Coefficient2 x
    0.00402614182268047,     !- Coefficient3 x**2
    3.120670734078,          !- Coefficient4 y
    -0.00297662635327143,    !- Coefficient5 y**2
    -0.148603418986272,      !- Coefficient6 x*y
    24.44,                   !- Minimum Value of x
    26.67,                   !- Maximum Value of x
    29.44,                   !- Minimum Value of y
    46.1,                    !- Maximum Value of y
    0.2,                     !- Minimum Curve Output
    1.0,                     !- Maximum Curve Output
    Temperature,             !- Input Unit Type for X
    Temperature,             !- Input Unit Type for Y
    Dimensionless;           !- Output Unit Type

Curve:Biquadratic,
    Discharge-SHR-fT-NREL,   !- Name
    -3.129846005,            !- Coefficient1 Constant
    0.108185126,             !- Coefficient2 x
    0,                       !- Coefficient3 x**2
    0.235966025,             !- Coefficient4 y
    0,                       !- Coefficient5 y**2
    -.008227635,             !- Coefficient6 x*y
    16.1,                    !- Minimum Value of x
    23.9,                    !- Maximum Value of x
    23.9,                    !- Minimum Value of y
    29.4,                    !- Maximum Value of y
    0.2,                     !- Minimum Curve Output
    2,                       !- Maximum Curve Output
    Temperature,             !- Input Unit Type for X
    Temperature,             !- Input Unit Type for Y
    Dimensionless;           !- Output Unit Type


!-   ===========  ALL OBJECTS IN CLASS: CURVE:TRIQUADRATIC ===========

Curve:Triquadratic,
    CoolCharge-Cool-Cap-fT,  !- Name
    0.9712123,               !- Coefficient1 Constant
    0.0014434524,            !- Coefficient2 x**2
    -0.015275502,            !- Coefficient3 x
    -0.0000068364,           !- Coefficient4 y**2
    -0.00039321,             !- Coefficient5 y
    0.0,                     !- Coefficient6 z**2
    0.0,                     !- Coefficient7 z
    0.0,                     !- Coefficient8 x**2*y**2
    -0.0002905956,           !- Coefficient9 x*y
    0.0,                     !- Coefficient10 x*y**2
    0.0,                     !- Coefficient11 x**2*y
    0.0,                     !- Coefficient12 x**2*z**2
    0.0,                     !- Coefficient13 x*z
    0.0,                     !- Coefficient14 x*z**2
    0.0,                     !- Coefficient15 x**2*z
    0.0,                     !- Coefficient16 y**2*z**2
    0.0,                     !- Coefficient17 y*z
    0.0,                     !- Coefficient18 y*z**2
    0.0,                     !- Coefficient19 y**2*z
    0.0,                     !- Coefficient20 x**2*y**2*z**2
    0.0,                     !- Coefficient21 x**2*y**2*z
    0.0,                     !- Coefficient22 x**2*y*z**2
    0.0,                     !- Coefficient23 x*y**2*z**2
    0.0,                     !- Coefficient24 x**2*y*z
    0.0,                     !- Coefficient25 x*y**2*z
    0.0,                     !- Coefficient26 x*y*z**2
    0.0,                     !- Coefficient27 x*y*z
    -100.0,                  !- Minimum Value of x
    100.0,                   !- Maximum Value of x
    -100.0,                  !- Minimum Value of y
    100.0,                   !- Maximum Value of y
    -100.0,                  !- Minimum Value of z
    100.0;                   !- Maximum Value of z

Curve:Triquadratic,
    CoolCharge-Cool-EIR-fT,  !- Name
    0.28687133,              !- Coefficient1 Constant
    -0.000810648,            !- Coefficient2 x**2
    0.023902164,             !- Coefficient3 x
    0.0003389364,            !- Coefficient4 y**2
    0.013458546,             !- Coefficient5 y
    0.0,                     !- Coefficient6 z**2
    0.0,                     !- Coefficient7 z
    0.0,                     !- Coefficient8 x**2*y**2
    -0.0004870044,           !- Coefficient9 x*y
    0.0,                     !- Coefficient10 x*y**2
    0.0,                     !- Coefficient11 x**2*y
    0.0,                     !- Coefficient12 x**2*z**2
    0.0,                     !- Coefficient13 x*z
    0.0,                     !- Coefficient14 x*z**2
    0.0,                     !- Coefficient15 x**2*z
    0.0,                     !- Coefficient16 y**2*z**2
    0.0,                     !- Coefficient17 y*z
    0.0,                     !- Coefficient18 y*z**2
    0.0,                     !- Coefficient19 y**2*z
    0.0,                     !- Coefficient20 x**2*y**2*z**2
    0.0,                     !- Coefficient21 x**2*y**2*z
    0.0,                     !- Coefficient22 x**2*y*z**2
    0.0,                     !- Coefficient23 x*y**2*z**2
    0.0,                     !- Coefficient24 x**2*y*z
    0.0,                     !- Coefficient25 x*y**2*z
    0.0,                     !- Coefficient26 x*y*z**2
    0.0,                     !- Coefficient27 x*y*z
    -100.0,                  !- Minimum Value of x
    100.0,                   !- Maximum Value of x
    -100.0,                  !- Minimum Value of y
    100.0,                   !- Maximum Value of y
    -100.0,                  !- Minimum Value of z
    100.0;                   !- Maximum Value of z

    Table:IndependentVariable,
      ChargeOnly-Cap-fT_IndependentVariable1, !- Name
      Cubic,                                  !- Interpolation Method
      Linear,                                 !- Extrapolation Method
      -100,                                   !- Minimum Value {BasedOnField A4}
      100,                                    !- Maximum Value {BasedOnField A4}
      ,                                       !- Normalization Reference Value {BasedOnField A4}
      Temperature,                            !- Unit Type
      ,                                       !- External File Name
      ,                                       !- External File Column Number
      ,                                       !- External File Starting Row Number
      -30,                                    !- Value 1
      -22,                                    !- Value 2
      -14,                                    !- Value 3
      -6,                                     !- Value 4
      2,                                      !- Value 5
      10,                                     !- Value 6
      18,                                     !- Value 7
      26,                                     !- Value 8
      34,                                     !- Value 9
      42,                                     !- Value 10
      50;                                     !- Value 11

    Table:IndependentVariable,
      ChargeOnly-Cap-fT_IndependentVariable2, !- Name
      Cubic,                                  !- Interpolation Method
      Linear,                                 !- Extrapolation Method
      0,                                      !- Minimum Value {BasedOnField A4}
      1,                                      !- Maximum Value {BasedOnField A4}
      ,                                       !- Normalization Reference Value {BasedOnField A4}
      Dimensionless,                          !- Unit Type
      ,                                       !- External File Name
      ,                                       !- External File Column Number
      ,                                       !- External File Starting Row Number
      0,                                      !- Value 1
      0.0165,                                 !- Value 2
      0.033,                                  !- Value 3
      0.0495,                                 !- Value 4
      0.066,                                  !- Value 5
      0.0825,                                 !- Value 6
      0.099,                                  !- Value 7
      0.1155,                                 !- Value 8
      0.132,                                  !- Value 9
      0.1485,                                 !- Value 10
      0.165,                                  !- Value 11
      0.2485,                                 !- Value 12
      0.332,                                  !- Value 13
      0.4155,                                 !- Value 14
      0.499,                                  !- Value 15
      0.5825,                                 !- Value 16
      0.666,                                  !- Value 17
      0.7495,                                 !- Value 18
      0.833,                                  !- Value 19
      0.9165,                                 !- Value 20
      1;                                      !- Value 21

    Table:IndependentVariableList,
      ChargeOnly-Cap-fT_IndependentVariableList, !- Name
      ChargeOnly-Cap-fT_IndependentVariable1, !- Independent Variable Name 1
      ChargeOnly-Cap-fT_IndependentVariable2; !- Independent Variable Name 2

    Table:Lookup,
      ChargeOnly-Cap-fT,                      !- Name
      ChargeOnly-Cap-fT_IndependentVariableList, !- Independent Variable List Name
      ,                                       !- Normalization Method
      ,                                       !- Normalization Divisor
      ,                                       !- Minimum Output {BasedOnField A4}
      ,                                       !- Maximum Output {BasedOnField A4}
      Dimensionless,                          !- Output Unit Type
      ,                                       !- External File Name
      ,                                       !- External File Column Number
      ,                                       !- External File Starting Row Number
      1.49824556678101,                       !- Output Value 1 {BasedOnField A4}
      1.46806170364912,                       !- Output Value 2 {BasedOnField A4}
      1.44052617800393,                       !- Output Value 3 {BasedOnField A4}
      1.41563898984543,                       !- Output Value 4 {BasedOnField A4}
      1.39340013917363,                       !- Output Value 5 {BasedOnField A4}
      1.37380962598852,                       !- Output Value 6 {BasedOnField A4}
      1.35686745029011,                       !- Output Value 7 {BasedOnField A4}
      1.3425736120784,                        !- Output Value 8 {BasedOnField A4}
      1.33092811135338,                       !- Output Value 9 {BasedOnField A4}
      1.32193094811506,                       !- Output Value 10 {BasedOnField A4}
      1.42668437190192,                       !- Output Value 11 {BasedOnField A4}
      1.41338906040552,                       !- Output Value 12 {BasedOnField A4}
      1.40035311136274,                       !- Output Value 13 {BasedOnField A4}
      1.3875765247736,                        !- Output Value 14 {BasedOnField A4}
      1.37505930063809,                       !- Output Value 15 {BasedOnField A4}
      1.36280143895621,                       !- Output Value 16 {BasedOnField A4}
      1.35080293972796,                       !- Output Value 17 {BasedOnField A4}
      1.33906380295334,                       !- Output Value 18 {BasedOnField A4}
      1.32758402863235,                       !- Output Value 19 {BasedOnField A4}
      1.31636361676499,                       !- Output Value 20 {BasedOnField A4}
      1.30540256735126,                       !- Output Value 21 {BasedOnField A4}
      1.50015546707142,                       !- Output Value 22 {BasedOnField A4}
      1.4705835604194,                        !- Output Value 23 {BasedOnField A4}
      1.44365999125407,                       !- Output Value 24 {BasedOnField A4}
      1.41938475957544,                       !- Output Value 25 {BasedOnField A4}
      1.3977578653835,                        !- Output Value 26 {BasedOnField A4}
      1.37877930867826,                       !- Output Value 27 {BasedOnField A4}
      1.36244908945972,                       !- Output Value 28 {BasedOnField A4}
      1.34876720772787,                       !- Output Value 29 {BasedOnField A4}
      1.33773366348272,                       !- Output Value 30 {BasedOnField A4}
      1.32934845672426,                       !- Output Value 31 {BasedOnField A4}
      1.40282715364577,                       !- Output Value 32 {BasedOnField A4}
      1.39042093324161,                       !- Output Value 33 {BasedOnField A4}
      1.37827407529108,                       !- Output Value 34 {BasedOnField A4}
      1.36638657979418,                       !- Output Value 35 {BasedOnField A4}
      1.35475844675091,                       !- Output Value 36 {BasedOnField A4}
      1.34338967616127,                       !- Output Value 37 {BasedOnField A4}
      1.33228026802526,                       !- Output Value 38 {BasedOnField A4}
      1.32143022234288,                       !- Output Value 39 {BasedOnField A4}
      1.31083953911413,                       !- Output Value 40 {BasedOnField A4}
      1.30050821833902,                       !- Output Value 41 {BasedOnField A4}
      1.29043626001753,                       !- Output Value 42 {BasedOnField A4}
      1.48443264447972,                       !- Output Value 43 {BasedOnField A4}
      1.45547269430757,                       !- Output Value 44 {BasedOnField A4}
      1.4291610816221,                        !- Output Value 45 {BasedOnField A4}
      1.40549780642334,                       !- Output Value 46 {BasedOnField A4}
      1.38448286871126,                       !- Output Value 47 {BasedOnField A4}
      1.36611626848589,                       !- Output Value 48 {BasedOnField A4}
      1.35039800574721,                       !- Output Value 49 {BasedOnField A4}
      1.33732808049523,                       !- Output Value 50 {BasedOnField A4}
      1.32690649272994,                       !- Output Value 51 {BasedOnField A4}
      1.31913324245135,                       !- Output Value 52 {BasedOnField A4}
      1.3664290373131,                        !- Output Value 53 {BasedOnField A4}
      1.35491190800118,                       !- Output Value 54 {BasedOnField A4}
      1.34365414114289,                       !- Output Value 55 {BasedOnField A4}
      1.33265573673823,                       !- Output Value 56 {BasedOnField A4}
      1.3219166947872,                        !- Output Value 57 {BasedOnField A4}
      1.31143701528981,                       !- Output Value 58 {BasedOnField A4}
      1.30121669824604,                       !- Output Value 59 {BasedOnField A4}
      1.2912557436559,                        !- Output Value 60 {BasedOnField A4}
      1.2815541515194,                        !- Output Value 61 {BasedOnField A4}
      1.27211192183652,                       !- Output Value 62 {BasedOnField A4}
      1.26292905460728,                       !- Output Value 63 {BasedOnField A4}
      1.45107709900591,                       !- Output Value 64 {BasedOnField A4}
      1.42272910531362,                       !- Output Value 65 {BasedOnField A4}
      1.39702944910802,                       !- Output Value 66 {BasedOnField A4}
      1.37397813038912,                       !- Output Value 67 {BasedOnField A4}
      1.35357514915692,                       !- Output Value 68 {BasedOnField A4}
      1.33582050541141,                       !- Output Value 69 {BasedOnField A4}
      1.32071419915259,                       !- Output Value 70 {BasedOnField A4}
      1.30825623038047,                       !- Output Value 71 {BasedOnField A4}
      1.29844659909505,                       !- Output Value 72 {BasedOnField A4}
      1.29128530529632,                       !- Output Value 73 {BasedOnField A4}
      1.31749002290391,                       !- Output Value 74 {BasedOnField A4}
      1.30686198468423,                       !- Output Value 75 {BasedOnField A4}
      1.29649330891818,                       !- Output Value 76 {BasedOnField A4}
      1.28638399560576,                       !- Output Value 77 {BasedOnField A4}
      1.27653404474698,                       !- Output Value 78 {BasedOnField A4}
      1.26694345634182,                       !- Output Value 79 {BasedOnField A4}
      1.25761223039029,                       !- Output Value 80 {BasedOnField A4}
      1.2485403668924,                        !- Output Value 81 {BasedOnField A4}
      1.23972786584814,                       !- Output Value 82 {BasedOnField A4}
      1.2311747272575,                        !- Output Value 83 {BasedOnField A4}
      1.2228809511205,                        !- Output Value 84 {BasedOnField A4}
      1.40008883064999,                       !- Output Value 85 {BasedOnField A4}
      1.37235279343756,                       !- Output Value 86 {BasedOnField A4}
      1.34726509371183,                       !- Output Value 87 {BasedOnField A4}
      1.32482573147279,                       !- Output Value 88 {BasedOnField A4}
      1.30503470672045,                       !- Output Value 89 {BasedOnField A4}
      1.28789201945481,                       !- Output Value 90 {BasedOnField A4}
      1.27339766967586,                       !- Output Value 91 {BasedOnField A4}
      1.26155165738361,                       !- Output Value 92 {BasedOnField A4}
      1.25235398257805,                       !- Output Value 93 {BasedOnField A4}
      1.24580464525919,                       !- Output Value 94 {BasedOnField A4}
      1.25601011041819,                       !- Output Value 95 {BasedOnField A4}
      1.24627116329075,                       !- Output Value 96 {BasedOnField A4}
      1.23679157861694,                       !- Output Value 97 {BasedOnField A4}